# 5-text_indentation.txt

================================
How to Use 5-text_indentation.py
================================

This module contains a function called `text_indentation` that can be used to print a properly formatted text.

Usage
=====

The `text_indentation` function takes one argument: `text`. It prints the text with two new lines after each occurrence of the characters `.`, `?`, and `:`.

Example usage:

```python
>>> from text_indentation import text_indentation
>>> text_indentation("Hello?")
Hello?

>>> text_indentation("   Hi there.")
Hi there.

>>> text_indentation("          ")
```

There are no spaces printed at the beginning of a line, and no spaces printed at the end of each printed line.

```python
>>> text_indentation("Hello.   ")
Hello.

>>> text_indentation("    Woah now.    This is messy.   ")
Woah now.
This is messy.
```

New lines will only be printed for the characters `.`, `?`, and `:` - text not ending with one of these characters will not be followed by a new line.

```python
>>> text_indentation("No ending period, what bad grammar")
No ending period, what bad grammar
```

New lines within the text are printed as normal.

```python
>>> text_indentation("Let's print a new-line! Here goes:\nPrinted.")
Let's print a new-line! Here goes:

Printed.
```

```python
>>> text_indentation("\n\n\n We just printed three new lines.")
We just printed three new lines.
```

```python
>>> text_indentation("A sneaky \n new line.")
A sneaky
new line.
```

Additionally, the `text_indentation` function can handle a combination of text with multiple occurrences of `.`, `?`, and `:`.

```python
>>> text_indentation("Lorem ipsum dolor sit amet, consectetur adipiscing elit. Quonam modo? Utrum igitur tibi litteram videor an totas paginas commovere? Non autem hoc: igitur ne illud quidem. Fortasse id optimum, sed ubi illud: Plus semper voluptatis? Teneo, inquit, finem illi videri nihil dolere. Transfer idem ad modestiam vel temperantiam, quae est moderatio cupiditatum rationi oboediens. Si id dicis, vicimus. Inde sermone vario sex illa a Dipylo stadia confecimus. Sin aliud quid voles, postea. Quae animi affectio suum cuique tribuens atque hanc, quam dico. Utinam quidem dicerent alium alio beatiorem! Iam ruinas videres")
Lorem ipsum dolor sit amet, consectetur adipiscing elit.

Quonam modo?

Utrum igitur tibi litteram videor an totas paginas commovere?

Non autem hoc:

igitur ne illud quidem.

Fortasse id optimum, sed ubi illud:

Plus semper voluptatis?

Teneo, inquit, finem illi videri nihil dolere.

Transfer idem ad modestiam vel temperantiam,
quae est moderatio cupiditatum rationi oboediens.

Si id dicis, vicimus.

Inde sermone vario sex illa a Dipylo stadia confecimus.

Sin aliud quid voles, postea.

Quae animi affectio suum cuique tribuens atque hanc, quam dico.

Utinam quidem dicerent alium alio beatiorem! Iam ruinas videres
```

Invalid Text
============

The `text` parameter must be a string. Otherwise, a `TypeError` will be raised.

Example:

```python
>>> text_indentation(7)
Traceback (most recent call last):
  File "<stdin>", line 1, in <module>
  File "text_indentation.py", line 6, in text_indentation
    raise TypeError("text must be a string")
TypeError: text must be a string
```
